
This summary file was generated by TurbSim (from OpenFAST-v1.0-323-g2dd692a0) on 22-Nov-2023 at 16:06:47.


Runtime Options:

1432881519  Random seed #1
    RANLUX  Type of random number generator
         F  Output binary HH turbulence parameters?
         F  Output formatted turbulence parameters?
         F  Output AeroDyn HH files?
         T  Output AeroDyn FF files?
         F  Output BLADED FF files?
         F  Output tower data?
         F  Output HAWC FF files?
         F  Output formatted FF files?
         F  Output coherent turbulence time step file?
 0 -  NONE  IEC turbulence models scaled to exact specified standard deviation


Turbine/Model Specifications:

        25  Vertical grid-point matrix dimension
        25  Horizontal grid-point matrix dimension
     0.050  Time step [seconds]
   720.000  Analysis time [seconds]
   720.000  Usable output time [seconds]
    88.500  Hub height [m]
   176.999  Grid height [m]
   176.999  Grid width [m]
     0.000  Vertical flow angle [degrees]
     0.000  Horizontal flow angle [degrees]


Meteorological Boundary Conditions:

    IECKAI  IEC Kaimal spectral model
         1  IEC standard: IEC 61400-1 Ed. 3: 2005
         A  IEC turbulence characteristic
       NTM  IEC Normal Turbulence Model
       N/A  IEC Extreme Turbulence Model (ETM) "c" parameter [m/s]
       PL   Wind profile type
   100.000  Reference height [m]
    11.000  Reference wind speed [m/s]
       N/A  Jet height [m]
     0.200  Power law exponent
     0.030  Surface roughness length [m]


Non-IEC Meteorological Boundary Conditions:

       N/A  Site latitude [degrees]
       N/A  Gradient Richardson number
       N/A  Friction or shear velocity [m/s]
       N/A  Mixing layer depth [m]
       N/A  Mean hub u'w' Reynolds stress
       N/A  Mean hub u'v' Reynolds stress
       N/A  Mean hub v'w' Reynolds stress


Spatial Coherence Models:

       IEC  u-component coherence model
      NONE  v-component coherence model
      NONE  w-component coherence model
(   12.000, 0.353E-03)  u-component coherence parameters
                   N/A  v-component coherence parameters
                   N/A  w-component coherence parameters
       N/A  Coherence exponent


You have requested that the following file(s) be generated:

   NREL-2p8-127_0_NTM_U11.000000_Seed1432881519.0.bts (AeroDyn/TurbSim full-field wind file)


Turbulence Simulation Scaling Parameter Summary:

   Turbulence model used                            =  IEC Kaimal
   Turbulence characteristic                        =  A
   IEC turbulence type                              =  Normal Turbulence Model
   IEC standard                                     =  IEC 61400-1 Ed. 3: 2005
   Mean wind speed at hub height                    =   10.734 m/s
   Expected value of turbulence intensity at 15 m/s =   16.000%
   Characteristic value of standard deviation       =    2.184 m/s
   Turbulence scale                                 =   42.000 m
   u-component integral scale                       =  340.200 m
   Coherency scale                                  =  340.200 m
   Characteristic value of hub turbulence intensity =   20.347%
   Gradient Richardson number                       =    0.000

   Wind profile type                                =  Power law
   Power law exponent                               =    0.200
   Mean shear across rotor disk                     =    0.064 (m/s)/m
   Assumed rotor diameter                           =  176.999 m
   Surface roughness length                         =    0.030 m

   Nyquist frequency of turbulent wind field        =   10.000 Hz

   Number of time steps in the FFT                  =    14400
   Number of time steps output                      =    14400
   Number of points simulated                       =      625


Mean Flow Angles:

   Vertical   =   0.0 degrees
   Horizontal =   0.0 degrees

Mean Wind Speed Profile:

   Height    Wind Speed   Horizontal Angle  Vertical Angle  U-comp (X)   V-comp (Y)   W-comp (Z)
     (m)        (m/s)         (degrees)       (degrees)       (m/s)        (m/s)        (m/s)   
   ------    ----------   ----------------  --------------  ----------   ----------   ----------
    177.0       12.33            0.00            0.00         12.33         0.00         0.00
    169.6       12.23            0.00            0.00         12.23         0.00         0.00
    162.2       12.12            0.00            0.00         12.12         0.00         0.00
    154.9       12.01            0.00            0.00         12.01         0.00         0.00
    147.5       11.89            0.00            0.00         11.89         0.00         0.00
    140.1       11.77            0.00            0.00         11.77         0.00         0.00
    132.7       11.64            0.00            0.00         11.64         0.00         0.00
    125.4       11.51            0.00            0.00         11.51         0.00         0.00
    118.0       11.37            0.00            0.00         11.37         0.00         0.00
    110.6       11.22            0.00            0.00         11.22         0.00         0.00
    103.2       11.07            0.00            0.00         11.07         0.00         0.00
     95.9       10.91            0.00            0.00         10.91         0.00         0.00
     88.5       10.73            0.00            0.00         10.73         0.00         0.00
     81.1       10.55            0.00            0.00         10.55         0.00         0.00
     73.8       10.35            0.00            0.00         10.35         0.00         0.00
     66.4       10.13            0.00            0.00         10.13         0.00         0.00
     59.0        9.90            0.00            0.00          9.90         0.00         0.00
     51.6        9.64            0.00            0.00          9.64         0.00         0.00
     44.3        9.34            0.00            0.00          9.34         0.00         0.00
     36.9        9.01            0.00            0.00          9.01         0.00         0.00
     29.5        8.62            0.00            0.00          8.62         0.00         0.00
     22.1        8.14            0.00            0.00          8.14         0.00         0.00
     14.8        7.50            0.00            0.00          7.50         0.00         0.00
      7.4        6.53            0.00            0.00          6.53         0.00         0.00
      0.0        0.96            0.00            0.00          0.96         0.00         0.00


Harvested Random Seeds after Generation of the Random Numbers:

    125437500 K 1
            0 K 2


Hub-Height Simulated Turbulence Statistical Summary:

   Type of Wind        Min (m/s)   Mean (m/s)    Max (m/s)  Sigma (m/s)       TI (%)
   ----------------    ---------   ----------    ---------  -----------       ------
   Longitudinal (u)         3.97        10.73        17.15        2.073       19.313
   Lateral (v)             -6.06        -0.00         5.95        1.710       15.931
   Vertical (w)            -4.27         0.00         4.15        1.069        9.959
   U component              3.97        10.73        17.15        2.073       19.313
   V component             -6.06        -0.00         5.95        1.710       15.931
   W component             -4.27         0.00         4.15        1.069        9.959
   Horizontal (U&V)         4.69        10.87        17.16        2.046       18.817
   Total                    4.69        10.93        17.32        2.036       18.624

                       Min Reynolds     Mean Reynolds    Max Reynolds    Correlation
   Product             Stress (m/s)^2   Stress (m/s)^2   Stress (m/s)^2  Coefficient
   ----------------    --------------   --------------   --------------  -----------
   u'w'                    -19.019            -0.151            14.890        -0.068
   u'v'                    -22.293             0.125            19.984         0.035
   v'w'                    -17.419            -0.205            15.870        -0.112


   Friction Velocity (Ustar)  =      0.389 m/s
   Maximum Instantaneous TKE  =     27.470 (m/s)^2
   Maximum Instantaneous CTKE =     12.525 (m/s)^2


Grid Point Variance Summary:

   Y-coord  -88.50  -81.12  -73.75  -66.37  -59.00  -51.62  -44.25  -36.87  -29.50  -22.12  -14.75   -7.37    0.00    7.37   14.75   22.12   29.50   36.87   44.25   51.62   59.00   66.37   73.75   81.12   88.50

   Height   Standard deviation at grid points for the u component:
   177.00    2.150   2.169   2.022   2.073   2.031   2.030   2.083   2.089   2.213   2.141   2.114   2.187   2.195   2.243   2.043   2.057   2.020   2.062   2.094   2.164   2.049   2.046   2.044   2.017   2.023
   169.62    2.251   2.133   2.025   1.910   1.959   1.966   1.827   1.973   2.037   2.143   2.214   2.125   2.186   2.104   2.107   2.018   2.039   2.105   2.212   2.183   2.166   2.117   2.145   2.118   1.985
   162.25    2.204   2.282   2.132   2.233   2.014   2.052   1.954   1.954   1.866   1.985   2.017   2.125   2.122   2.160   2.053   1.973   2.160   2.228   2.210   2.261   2.286   2.252   2.139   2.037   1.946
   154.87    2.174   2.187   2.150   2.060   2.058   2.018   1.917   1.811   1.775   1.867   1.919   1.941   2.020   2.007   1.972   2.006   2.164   2.157   2.087   2.250   2.224   2.136   2.138   2.066   2.022
   147.50    2.144   2.136   2.045   1.984   1.959   1.966   1.831   1.709   1.758   1.863   1.942   1.920   1.874   1.930   2.006   2.078   2.171   2.228   2.183   2.232   2.175   2.094   2.092   2.011   1.988
   140.12    2.282   2.287   2.020   1.834   1.806   1.781   1.781   1.766   1.758   1.908   1.913   1.855   1.938   1.909   1.958   2.015   2.096   2.206   2.274   2.295   2.222   2.071   2.076   1.972   2.014
   132.75    2.490   2.420   2.043   2.111   1.876   1.762   1.655   1.766   1.747   1.850   1.889   1.877   2.006   2.071   2.045   1.991   2.032   2.043   2.223   2.357   2.165   2.139   1.959   1.893   1.961
   125.37    2.359   2.195   2.186   2.074   2.001   1.683   1.732   1.807   1.717   1.759   1.795   1.868   1.880   2.052   2.058   2.074   2.013   2.075   2.092   2.215   2.248   2.141   2.128   1.954   1.918
   118.00    2.262   2.212   2.061   2.026   2.099   1.970   1.987   1.796   1.761   1.753   1.779   1.819   1.868   1.897   1.986   2.124   2.143   2.162   2.246   2.294   2.251   2.128   2.080   2.158   2.199
   110.62    2.100   2.144   2.172   2.073   2.108   2.021   2.010   1.951   1.746   1.826   1.901   1.824   1.864   1.949   1.904   2.063   2.041   2.105   2.245   2.093   2.187   2.141   2.099   2.176   2.200
   103.25    2.167   2.146   2.111   2.044   2.168   2.077   2.076   2.078   2.081   1.939   1.950   1.813   1.865   1.881   2.117   1.957   2.122   2.172   2.271   2.149   2.122   2.197   2.264   2.258   2.370
    95.87    2.191   2.214   2.159   2.214   2.162   2.091   2.159   2.128   2.076   2.130   1.933   1.954   1.920   1.966   1.968   2.123   2.101   2.110   2.081   2.015   1.918   2.050   2.112   2.301   2.391
    88.50    2.146   2.219   2.138   2.281   2.167   2.158   2.242   2.129   2.129   2.132   2.018   2.035   2.073   2.176   2.183   2.157   2.068   2.069   2.021   2.025   2.051   2.249   2.166   2.280   2.270
    81.13    2.170   2.117   2.149   2.309   2.258   2.157   2.106   2.117   2.108   2.128   2.033   2.076   2.086   2.157   2.128   2.114   2.101   2.127   2.073   2.077   2.182   2.258   2.365   2.413   2.348
    73.75    2.269   2.123   2.157   2.184   2.163   2.102   2.101   2.022   2.043   2.134   1.999   2.189   2.194   2.278   2.131   2.107   2.006   1.958   1.968   1.989   2.107   2.197   2.244   2.465   2.408
    66.38    2.250   2.345   2.129   2.177   2.119   2.062   2.077   1.996   2.217   2.319   2.289   2.206   2.303   2.290   2.309   2.126   2.071   1.964   2.023   2.066   2.091   2.092   2.181   2.413   2.313
    59.00    2.261   2.186   2.293   2.130   2.128   2.149   2.185   2.230   2.342   2.269   2.281   2.331   2.300   2.330   2.291   2.295   2.166   2.006   2.006   2.183   2.020   2.171   2.308   2.407   2.478
    51.63    2.174   2.300   2.199   2.130   1.972   2.141   2.285   2.263   2.275   2.380   2.368   2.358   2.292   2.371   2.350   2.209   2.177   2.041   1.947   2.067   2.150   2.156   2.221   2.371   2.516
    44.25    2.124   2.156   2.217   2.046   2.052   2.189   2.315   2.341   2.224   2.273   2.355   2.279   2.173   2.154   2.248   2.152   2.050   2.012   1.997   1.963   2.004   2.143   2.205   2.383   2.441
    36.88    2.177   2.193   2.220   2.153   2.263   2.141   2.215   2.200   2.265   2.205   2.213   2.076   2.033   2.106   2.123   2.155   2.014   2.017   1.934   1.896   2.061   2.157   2.269   2.243   2.380
    29.50    2.185   2.300   2.181   2.205   2.206   2.220   2.175   2.155   2.121   2.169   2.209   2.051   2.181   2.178   2.201   2.161   2.123   1.985   1.964   1.998   1.993   2.157   2.183   2.173   2.258
    22.13    2.367   2.278   2.162   2.212   2.276   2.200   2.150   2.061   2.135   2.258   2.209   2.168   2.313   2.451   2.229   2.258   2.138   2.206   2.083   2.084   2.052   2.201   2.163   2.076   2.076
    14.75    2.356   2.414   2.361   2.201   2.248   2.160   2.170   2.056   2.283   2.201   2.186   2.124   2.325   2.344   2.254   2.417   2.083   2.189   2.211   2.070   2.270   2.330   2.262   2.213   2.210
     7.38    2.044   2.231   2.287   2.244   2.416   2.348   2.233   2.103   2.310   2.277   2.241   2.167   2.298   2.227   2.157   2.165   2.097   2.121   2.217   2.100   2.113   2.235   2.254   2.159   2.274
     0.00    2.086   2.125   2.217   2.370   2.252   2.277   2.217   2.269   2.322   2.189   2.258   2.069   2.246   2.198   2.107   2.109   2.125   1.994   2.087   2.188   2.101   2.049   2.082   2.191   2.155

   Height   Standard deviation at grid points for the v component:
   177.00    1.710   1.710   1.710   1.710   1.710   1.710   1.710   1.710   1.710   1.710   1.710   1.710   1.710   1.710   1.710   1.710   1.710   1.710   1.710   1.710   1.710   1.710   1.710   1.710   1.710
   169.62    1.710   1.710   1.710   1.710   1.710   1.710   1.710   1.710   1.710   1.710   1.710   1.710   1.710   1.710   1.710   1.710   1.710   1.710   1.710   1.710   1.710   1.710   1.710   1.710   1.710
   162.25    1.710   1.710   1.710   1.710   1.710   1.710   1.710   1.710   1.710   1.710   1.710   1.710   1.710   1.710   1.710   1.710   1.710   1.710   1.710   1.710   1.710   1.710   1.710   1.710   1.710
   154.87    1.710   1.710   1.710   1.710   1.710   1.710   1.710   1.710   1.710   1.710   1.710   1.710   1.710   1.710   1.710   1.710   1.710   1.710   1.710   1.710   1.710   1.710   1.710   1.710   1.710
   147.50    1.710   1.710   1.710   1.710   1.710   1.710   1.710   1.710   1.710   1.710   1.710   1.710   1.710   1.710   1.710   1.710   1.710   1.710   1.710   1.710   1.710   1.710   1.710   1.710   1.710
   140.12    1.710   1.710   1.710   1.710   1.710   1.710   1.710   1.710   1.710   1.710   1.710   1.710   1.710   1.710   1.710   1.710   1.710   1.710   1.710   1.710   1.710   1.710   1.710   1.710   1.710
   132.75    1.710   1.710   1.710   1.710   1.710   1.710   1.710   1.710   1.710   1.710   1.710   1.710   1.710   1.710   1.710   1.710   1.710   1.710   1.710   1.710   1.710   1.710   1.710   1.710   1.710
   125.37    1.710   1.710   1.710   1.710   1.710   1.710   1.710   1.710   1.710   1.710   1.710   1.710   1.710   1.710   1.710   1.710   1.710   1.710   1.710   1.710   1.710   1.710   1.710   1.710   1.710
   118.00    1.710   1.710   1.710   1.710   1.710   1.710   1.710   1.710   1.710   1.710   1.710   1.710   1.710   1.710   1.710   1.710   1.710   1.710   1.710   1.710   1.710   1.710   1.710   1.710   1.710
   110.62    1.710   1.710   1.710   1.710   1.710   1.710   1.710   1.710   1.710   1.710   1.710   1.710   1.710   1.710   1.710   1.710   1.710   1.710   1.710   1.710   1.710   1.710   1.710   1.710   1.710
   103.25    1.710   1.710   1.710   1.710   1.710   1.710   1.710   1.710   1.710   1.710   1.710   1.710   1.710   1.710   1.710   1.710   1.710   1.710   1.710   1.710   1.710   1.710   1.710   1.710   1.710
    95.87    1.710   1.710   1.710   1.710   1.710   1.710   1.710   1.710   1.710   1.710   1.710   1.710   1.710   1.710   1.710   1.710   1.710   1.710   1.710   1.710   1.710   1.710   1.710   1.710   1.710
    88.50    1.710   1.710   1.710   1.710   1.710   1.710   1.710   1.710   1.710   1.710   1.710   1.710   1.710   1.710   1.710   1.710   1.710   1.710   1.710   1.710   1.710   1.710   1.710   1.710   1.710
    81.13    1.710   1.710   1.710   1.710   1.710   1.710   1.710   1.710   1.710   1.710   1.710   1.710   1.710   1.710   1.710   1.710   1.710   1.710   1.710   1.710   1.710   1.710   1.710   1.710   1.710
    73.75    1.710   1.710   1.710   1.710   1.710   1.710   1.710   1.710   1.710   1.710   1.710   1.710   1.710   1.710   1.710   1.710   1.710   1.710   1.710   1.710   1.710   1.710   1.710   1.710   1.710
    66.38    1.710   1.710   1.710   1.710   1.710   1.710   1.710   1.710   1.710   1.710   1.710   1.710   1.710   1.710   1.710   1.710   1.710   1.710   1.710   1.710   1.710   1.710   1.710   1.710   1.710
    59.00    1.710   1.710   1.710   1.710   1.710   1.710   1.710   1.710   1.710   1.710   1.710   1.710   1.710   1.710   1.710   1.710   1.710   1.710   1.710   1.710   1.710   1.710   1.710   1.710   1.710
    51.63    1.710   1.710   1.710   1.710   1.710   1.710   1.710   1.710   1.710   1.710   1.710   1.710   1.710   1.710   1.710   1.710   1.710   1.710   1.710   1.710   1.710   1.710   1.710   1.710   1.710
    44.25    1.710   1.710   1.710   1.710   1.710   1.710   1.710   1.710   1.710   1.710   1.710   1.710   1.710   1.710   1.710   1.710   1.710   1.710   1.710   1.710   1.710   1.710   1.710   1.710   1.710
    36.88    1.710   1.710   1.710   1.710   1.710   1.710   1.710   1.710   1.710   1.710   1.710   1.710   1.710   1.710   1.710   1.710   1.710   1.710   1.710   1.710   1.710   1.710   1.710   1.710   1.710
    29.50    1.710   1.710   1.710   1.710   1.710   1.710   1.710   1.710   1.710   1.710   1.710   1.710   1.710   1.710   1.710   1.710   1.710   1.710   1.710   1.710   1.710   1.710   1.710   1.710   1.710
    22.13    1.710   1.710   1.710   1.710   1.710   1.710   1.710   1.710   1.710   1.710   1.710   1.710   1.710   1.710   1.710   1.710   1.710   1.710   1.710   1.710   1.710   1.710   1.710   1.710   1.710
    14.75    1.710   1.710   1.710   1.710   1.710   1.710   1.710   1.710   1.710   1.710   1.710   1.710   1.710   1.710   1.710   1.710   1.710   1.710   1.710   1.710   1.710   1.710   1.710   1.710   1.710
     7.38    1.710   1.710   1.710   1.710   1.710   1.710   1.710   1.710   1.710   1.710   1.710   1.710   1.710   1.710   1.710   1.710   1.710   1.710   1.710   1.710   1.710   1.710   1.710   1.710   1.710
     0.00    1.710   1.710   1.710   1.710   1.710   1.710   1.710   1.710   1.710   1.710   1.710   1.710   1.710   1.710   1.710   1.710   1.710   1.710   1.710   1.710   1.710   1.710   1.710   1.710   1.710

   Height   Standard deviation at grid points for the w component:
   177.00    1.069   1.069   1.069   1.069   1.069   1.069   1.069   1.069   1.069   1.069   1.069   1.069   1.069   1.069   1.069   1.069   1.069   1.069   1.069   1.069   1.069   1.069   1.069   1.069   1.069
   169.62    1.069   1.069   1.069   1.069   1.069   1.069   1.069   1.069   1.069   1.069   1.069   1.069   1.069   1.069   1.069   1.069   1.069   1.069   1.069   1.069   1.069   1.069   1.069   1.069   1.069
   162.25    1.069   1.069   1.069   1.069   1.069   1.069   1.069   1.069   1.069   1.069   1.069   1.069   1.069   1.069   1.069   1.069   1.069   1.069   1.069   1.069   1.069   1.069   1.069   1.069   1.069
   154.87    1.069   1.069   1.069   1.069   1.069   1.069   1.069   1.069   1.069   1.069   1.069   1.069   1.069   1.069   1.069   1.069   1.069   1.069   1.069   1.069   1.069   1.069   1.069   1.069   1.069
   147.50    1.069   1.069   1.069   1.069   1.069   1.069   1.069   1.069   1.069   1.069   1.069   1.069   1.069   1.069   1.069   1.069   1.069   1.069   1.069   1.069   1.069   1.069   1.069   1.069   1.069
   140.12    1.069   1.069   1.069   1.069   1.069   1.069   1.069   1.069   1.069   1.069   1.069   1.069   1.069   1.069   1.069   1.069   1.069   1.069   1.069   1.069   1.069   1.069   1.069   1.069   1.069
   132.75    1.069   1.069   1.069   1.069   1.069   1.069   1.069   1.069   1.069   1.069   1.069   1.069   1.069   1.069   1.069   1.069   1.069   1.069   1.069   1.069   1.069   1.069   1.069   1.069   1.069
   125.37    1.069   1.069   1.069   1.069   1.069   1.069   1.069   1.069   1.069   1.069   1.069   1.069   1.069   1.069   1.069   1.069   1.069   1.069   1.069   1.069   1.069   1.069   1.069   1.069   1.069
   118.00    1.069   1.069   1.069   1.069   1.069   1.069   1.069   1.069   1.069   1.069   1.069   1.069   1.069   1.069   1.069   1.069   1.069   1.069   1.069   1.069   1.069   1.069   1.069   1.069   1.069
   110.62    1.069   1.069   1.069   1.069   1.069   1.069   1.069   1.069   1.069   1.069   1.069   1.069   1.069   1.069   1.069   1.069   1.069   1.069   1.069   1.069   1.069   1.069   1.069   1.069   1.069
   103.25    1.069   1.069   1.069   1.069   1.069   1.069   1.069   1.069   1.069   1.069   1.069   1.069   1.069   1.069   1.069   1.069   1.069   1.069   1.069   1.069   1.069   1.069   1.069   1.069   1.069
    95.87    1.069   1.069   1.069   1.069   1.069   1.069   1.069   1.069   1.069   1.069   1.069   1.069   1.069   1.069   1.069   1.069   1.069   1.069   1.069   1.069   1.069   1.069   1.069   1.069   1.069
    88.50    1.069   1.069   1.069   1.069   1.069   1.069   1.069   1.069   1.069   1.069   1.069   1.069   1.069   1.069   1.069   1.069   1.069   1.069   1.069   1.069   1.069   1.069   1.069   1.069   1.069
    81.13    1.069   1.069   1.069   1.069   1.069   1.069   1.069   1.069   1.069   1.069   1.069   1.069   1.069   1.069   1.069   1.069   1.069   1.069   1.069   1.069   1.069   1.069   1.069   1.069   1.069
    73.75    1.069   1.069   1.069   1.069   1.069   1.069   1.069   1.069   1.069   1.069   1.069   1.069   1.069   1.069   1.069   1.069   1.069   1.069   1.069   1.069   1.069   1.069   1.069   1.069   1.069
    66.38    1.069   1.069   1.069   1.069   1.069   1.069   1.069   1.069   1.069   1.069   1.069   1.069   1.069   1.069   1.069   1.069   1.069   1.069   1.069   1.069   1.069   1.069   1.069   1.069   1.069
    59.00    1.069   1.069   1.069   1.069   1.069   1.069   1.069   1.069   1.069   1.069   1.069   1.069   1.069   1.069   1.069   1.069   1.069   1.069   1.069   1.069   1.069   1.069   1.069   1.069   1.069
    51.63    1.069   1.069   1.069   1.069   1.069   1.069   1.069   1.069   1.069   1.069   1.069   1.069   1.069   1.069   1.069   1.069   1.069   1.069   1.069   1.069   1.069   1.069   1.069   1.069   1.069
    44.25    1.069   1.069   1.069   1.069   1.069   1.069   1.069   1.069   1.069   1.069   1.069   1.069   1.069   1.069   1.069   1.069   1.069   1.069   1.069   1.069   1.069   1.069   1.069   1.069   1.069
    36.88    1.069   1.069   1.069   1.069   1.069   1.069   1.069   1.069   1.069   1.069   1.069   1.069   1.069   1.069   1.069   1.069   1.069   1.069   1.069   1.069   1.069   1.069   1.069   1.069   1.069
    29.50    1.069   1.069   1.069   1.069   1.069   1.069   1.069   1.069   1.069   1.069   1.069   1.069   1.069   1.069   1.069   1.069   1.069   1.069   1.069   1.069   1.069   1.069   1.069   1.069   1.069
    22.13    1.069   1.069   1.069   1.069   1.069   1.069   1.069   1.069   1.069   1.069   1.069   1.069   1.069   1.069   1.069   1.069   1.069   1.069   1.069   1.069   1.069   1.069   1.069   1.069   1.069
    14.75    1.069   1.069   1.069   1.069   1.069   1.069   1.069   1.069   1.069   1.069   1.069   1.069   1.069   1.069   1.069   1.069   1.069   1.069   1.069   1.069   1.069   1.069   1.069   1.069   1.069
     7.38    1.069   1.069   1.069   1.069   1.069   1.069   1.069   1.069   1.069   1.069   1.069   1.069   1.069   1.069   1.069   1.069   1.069   1.069   1.069   1.069   1.069   1.069   1.069   1.069   1.069
     0.00    1.069   1.069   1.069   1.069   1.069   1.069   1.069   1.069   1.069   1.069   1.069   1.069   1.069   1.069   1.069   1.069   1.069   1.069   1.069   1.069   1.069   1.069   1.069   1.069   1.069

   Mean standard deviation across all grid points:
      u component:    2.120 m/s
      v component:    1.710 m/s
      w component:    1.069 m/s


U-component (X) statistics from the interpolated hub point:

   Mean =  10.7345 m/s
   TI   =  19.3129 %


Processing complete.  23.978 CPU seconds used.
